/*--------------------------------*- C++ -*----------------------------------*\
| =========                 |                                                 |
| \\      /  F ield         | OpenFOAM: The Open Source CFD Toolbox           |
|  \\    /   O peration     | Version:  dev                                   |
|   \\  /    A nd           | Web:      www.OpenFOAM.org                      |
|    \\/     M anipulation  |                                                 |
\*---------------------------------------------------------------------------*/
FoamFile
{
    version     2.0;
    format      ascii;
    class       volScalarField;
    location    "0";
    object      p_rgh;
}
// * * * * * * * * * * * * * * * * * * * * * * * * * * * * * * * * * * * * * //

dimensions      [1 -1 -2 0 0 0 0];

internalField   uniform 0;

boundaryField
{
    solid
    {
        type            fixedFluxPressure;
        value           $internalField;
    }

    "(outlet|side)"
    {
        type            prghTotalHydrostaticPressure;
        p0              $internalField;
        value           $internalField;
    }

    ground
    {
        type            fixedFluxPressure;
        value           $internalField;
    }

    frontAndBack
    {
        type            empty;
    }

    burner          
    {
        type            fixedFluxPressure;
        value           $internalField;
    }

    region0_to_panelRegion_panel
    {
        type            fixedFluxPressure;
        value           $internalField;
    }
}


// ************************************************************************* //
