/*--------------------------------*- C++ -*----------------------------------*\
| =========                 |                                                 |
| \\      /  F ield         | OpenFOAM: The Open Source CFD Toolbox           |
|  \\    /   O peration     | Version:  dev                                   |
|   \\  /    A nd           | Web:      www.OpenFOAM.org                      |
|    \\/     M anipulation  |                                                 |
\*---------------------------------------------------------------------------*/
FoamFile
{
    version     2.0;
    format      ascii;
    class       volVectorField;
    location    "0";
    object      U;
}
// * * * * * * * * * * * * * * * * * * * * * * * * * * * * * * * * * * * * * //

dimensions      [0 1 -1 0 0 0 0];

internalField   uniform (0 0 0);

boundaryField
{
    solid
    {
        type            fixedValue;
        value           $internalField;
    }

    "(outlet|side)"
    {
        type            pressureInletOutletVelocity;
        value           $internalField;
    } 

    ground          
    {
        type            noSlip;
    }

    frontAndBack
    {
        type            empty;
    }

    burner
    {
        type            flowRateInletVelocity;
        massFlowRate        0.002;    
        value           uniform (0 0 0);
    }
    region0_to_panelRegion_panel
    {
        //type            flowRateInletVelocityCoupled;
        //type            flowRateInletVelocityFuelConvertCoupled;
        type            flowRateInletVelocityPyrolysisCoupled;
        phi             phi;
        nbrPhi          phiGas;
        rho             rho;
        //hocPyr          1.765e7;  //heat of combustion per unit of pyrolysate, need to be converted from hoc per unit of virgin solid material 
        //hocSolid        19168962.510897995;        
        hocSolid          1.66e7;  //Hoc for virgin material, doubleWall 
        value           uniform (0 0 0);
    }
}


// ************************************************************************* //
