/*---------------------------------------------------------------------------*\
| =========                 |                                                 |
| \\      /  F ield         | OpenFOAM: The Open Source CFD Toolbox           |
|  \\    /   O peration     | Version:  dev                                   |
|   \\  /    A nd           | Web:      www.OpenFOAM.org                      |
|    \\/     M anipulation  |                                                 |
\*---------------------------------------------------------------------------*/
FoamFile
{
    version     2.0;
    format      binary;
    class       dictionary;
    location    "constant";
    object      pyrolysisZones;
}
// * * * * * * * * * * * * * * * * * * * * * * * * * * * * * * * * * * * * * //

    pyrolysis
    {

        active          true;

        pyrolysisModel  reactingOneDim21;

        regionName      panelRegion;

        reactingOneDim21Coeffs
        {
            gasHSource      no; //Energy source term due to pyrolysis gas

            qrHSource       no; //Energy source term due in depht radiation

            filmCoupled     false;

            radFluxName     qr;

            minimumDelta    1e-6;

            moveMesh        false;

            useChemistrySolvers false;
        }

        infoOutput      true;
    }

// ************************************************************************* //
