/*--------------------------------*- C++ -*----------------------------------*\
| =========                 |                                                 |
| \\      /  F ield         | OpenFOAM: The Open Source CFD Toolbox           |
|  \\    /   O peration     | Version:  dev                                   |
|   \\  /    A nd           | Web:      www.OpenFOAM.org                      |
|    \\/     M anipulation  |                                                 |
\*---------------------------------------------------------------------------*/
FoamFile
{
    version     2.0;
    format      binary;
    class       polyBoundaryMesh;
    location    "constant/polyMesh";
    object      boundary;
}
// * * * * * * * * * * * * * * * * * * * * * * * * * * * * * * * * * * * * * //

6
(
    base
    {
        type            patch;
        nFaces          1728;
        startFace       157500;
    }
    outlet
    {
        type            patch;
        nFaces          0;
        startFace       159228;
    }
    sides
    {
        type            patch;
        nFaces          3600;
        startFace       159228;
    }
    inlet
    {
        type            patch;
        nFaces          72;
        startFace       162828;
    }
    procBoundary2to0
    {
        type            processor;
        inGroups        1(processor);
        nFaces          1800;
        startFace       162900;
        matchTolerance  0.0001;
        transform       unknown;
        myProcNo        2;
        neighbProcNo    0;
    }
    procBoundary2to3
    {
        type            processor;
        inGroups        1(processor);
        nFaces          1800;
        startFace       164700;
        matchTolerance  0.0001;
        transform       unknown;
        myProcNo        2;
        neighbProcNo    3;
    }
)

// ************************************************************************* //
