/*--------------------------------*- C++ -*----------------------------------*\
| =========                 |                                                 |
| \\      /  F ield         | OpenFOAM: The Open Source CFD Toolbox           |
|  \\    /   O peration     | Version:  dev                                   |
|   \\  /    A nd           | Web:      www.OpenFOAM.org                      |
|    \\/     M anipulation  |                                                 |
\*---------------------------------------------------------------------------*/
FoamFile
{
    version     2.0;
    format      ascii;
    class       volScalarField;
    location    "0";
    object      nut;
}
// * * * * * * * * * * * * * * * * * * * * * * * * * * * * * * * * * * * * * //

dimensions      [0  2 -1 0 0 0 0];

internalField   uniform 1e-8;

boundaryField
{
    top
    {
        type            zeroGradient;
    }

    sides
    {
        type            zeroGradient;
    }

    base
    {
        type            fixedValue;
        value           uniform 0;
    }

    burner
    {
        type            zeroGradient;
    }

    "(region0_to_pyrolysisRegion_box_.*)"
    {
        type            nutFireWallFunction;
        value           uniform 1e-8;
        // type            fixedValue;
        // value           uniform 1e-8;
    }
}


// ************************************************************************* //

