/*--------------------------------*- C++ -*----------------------------------*\
| =========                 |                                                 |
| \\      /  F ield         | OpenFOAM: The Open Source CFD Toolbox           |
|  \\    /   O peration     | Version:  dev                                   |
|   \\  /    A nd           | Web:      www.OpenFOAM.org                      |
|    \\/     M anipulation  |                                                 |
\*---------------------------------------------------------------------------*/
FoamFile
{
    version     2.0;
    format      ascii;
    class       dictionary;
    location    "constant";
    object      pyrolysisZones;
}
// * * * * * * * * * * * * * * * * * * * * * * * * * * * * * * * * * * * * * //

pyrolysis
{

    active          true;

    pyrolysisModel  reactingOneDim21;

    regionName      pyrolysisRegion;

    reactingOneDim21Coeffs
    {
        gasHSource      no; //Energy source term due to pyrolysis gas
        qrHSource       no; //Energy source term due in depth radiation

        filmCoupled     true;

        radFluxName     qr;

        moveMesh        false; // true;
        minimumDelta    1e-6;
    }
    infoOutput      true;
}

// ************************************************************************* //
